Wind Energ. Sci., 9, 1–24, 2024
https://doi.org/10.5194/wes-9-1-2024
© Author(s) 2024. This work is distributed under
the Creative Commons Attribution 4.0 License.
A digital twin solution for ﬂoating offshore wind
turbines validated using a full-scale prototype
Emmanuel Branlard1, Jason Jonkman1, Cameron Brown2, and Jiatian Zhang2
1National Renewable Energy Laboratory, Golden, CO 80401, USA
2Stiesdal Offshore A/S, Copenhagen, Denmark
Correspondence: Emmanuel Branlard (emmanuel.branlard@nrel.gov)
Received: 3 May 2023 – Discussion started: 16 May 2023
Revised: 11 November 2023 – Accepted: 17 November 2023 – Published: 8 January 2024
Abstract. In this work, we implement, verify, and validate a physics-based digital twin solution applied to a
ﬂoating offshore wind turbine. The digital twin is validated using measurement data from the full-scale TetraSpar
prototype. We focus on the estimation of the aerodynamic loads, wind speed, and section loads along the tower,
with the aim of estimating the fatigue lifetime of the tower. Our digital twin solution integrates (1) a Kalman ﬁlter
to estimate the structural states based on a linear model of the structure and measurements from the turbine, (2) an
aerodynamic estimator, and (3) a physics-based virtual sensing procedure to obtain the loads along the tower. The
digital twin relies on a set of measurements that are expected to be available on any existing wind turbine (power,
pitch, rotor speed, and tower acceleration) and motion sensors that are likely to be standard measurements for a
ﬂoating platform (inclinometers and GPS sensors). We explore two different pathways to obtain physics-based
models: a suite of dedicated Python tools implemented as part of this work and the OpenFAST linearization
feature. In our ﬁnal version of the digital twin, we use components from both approaches. We perform different
numerical experiments to verify the individual models of the digital twin. In this simulation realm, we obtain
estimated damage equivalent loads of the tower fore–aft bending moment with an accuracy of approximately 5 %
to 10 %. When comparing the digital twin estimations with the measurements from the TetraSpar prototype, the
errors increased to 10 %–15 % on average. Overall, the accuracy of the results is promising and demonstrates the
possibility of using digital twin solutions to estimate fatigue loads on ﬂoating offshore wind turbines. A natural
continuation of this work would be to implement the monitoring and diagnostics aspect of the digital twin to
inform operation and maintenance decisions. The digital twin solution is provided with examples as part of an
open-source repository.
Copyright statement. This work was authored in part by the Na-
tional Renewable Energy Laboratory, operated by Alliance for Sus-
tainable Energy, LLC, for the US Department of Energy (DOE) un-
der contract no. DE-AC36-08GO28308. The US Government re-
tains and the publisher, by accepting the article for publication, ac-
knowledges that the US Government retains a nonexclusive, paid-
up, irrevocable, worldwide license to publish or reproduce the pub-
lished form of this work, or allow others to do so, for US Govern-
ment purposes.1 Introduction
The offshore ﬂoating wind turbine market is expected to
grow in the coming decades as the technology gains in ma-
turity, with several ﬂoating wind turbine prototypes already
tested and commissioned, such as the TetraSpar, developed
by Stiesdal Offshore (Stiesdal Offshore, 2022). Operation
and maintenance (O&M) costs can account for approxi-
mately one-third of offshore wind farm life cycle expendi-
tures for a ﬁxed-bottom project and are expected to be higher
for remote (ﬂoating) projects (Castella, 2020). Reducing the
O&M costs is therefore an impactful and effective means to
Published by Copernicus Publications on behalf of the European Academy of Wind Energy e.V.
------------------------------End of the page -----------------------------------
2 E. Branlard et al.: Digital twin ﬂoating
lower the costs of ﬂoating offshore projects. Digital twin so-
lutions are increasingly being used to follow products during
their life cycle to assess component conditions, guide predic-
tive maintenance, and thereby reduce O&M costs. A review
of digital twins for power systems is found in Song et al.
(2023). Digital twins often include a virtual sensing compo-
nent that provides information not measured by the physi-
cal system and a structural health monitoring component to
assess the condition of the system. Virtual sensing technol-
ogy is usually achieved using physics-based or data-driven
approaches, with both approaches relying on measurements
from the physical system to infer and extrapolate informa-
tion about its current state. Physics-based approaches use
a numerical model of the system, whereas data-driven ap-
proaches use either ad hoc algorithms or machine-learning
techniques. Machine-learning approaches can be trained us-
ing high-ﬁdelity models or measurements, leading to poten-
tially high accuracies while maintaining low computational
time, but their training requirements imply that a technology
cannot be readily transferred from one platform to another.
Physics-based models often require low-ﬁdelity models to
achieve computational times low enough for digital twins to
run in real time. They nevertheless offer the advantage that
they provide tractable and insightful results, and they can be
applied to a same family of wind turbine concepts because
they do not require a training dataset. Currently, there is no
deﬁnite case as to which approach can lead to the best dig-
ital twin implementation, and it is possible that future ap-
proaches will combine physics-based with data-driven tech-
niques. This work presents the development, veriﬁcation, and
validation of a physics-based digital twin for ﬂoating wind
turbines as a proof of concept for future maturation of the
technology.
Digital twins for wind turbine applications have recently
become a topic of research interest. The authors explored
the topic of physics-based digital twins in previous work,
in which a method to estimate tower loads on land-based
turbines was developed (Branlard et al., 2020a, b). The ap-
proach relied on a Kalman ﬁlter model (Kalman, 1960;
Zarchan and Musoff, 2015) that combines a linear physics-
based model of the structure with measurements from the tur-
bine to perform a virtual sensing of the tower section loads
and estimate the fatigue of this component. The measure-
ment data were taken from the supervisory control and data
acquisition (SCADA) system using sensors readily avail-
able on most turbines. The approach used a mix between
an augmented Kalman ﬁlter approach (Lourens et al., 2012),
where the loads are estimated with the states of the system,
and a physics-based aerodynamic estimator for aerodynamic
thrust. Bilbao et al. (2022) used a Gaussian process latent
force model to estimate the forcing of the system and thereby
obtain the section loads along the tower. Drivetrains are an-
other component for which a digital twin has been applied,
with physics-based approaches presented in Mehlan et al.(2022, 2023) and data-driven models presented in Kamel
et al. (2023).
Despite the recent popularity of the term “digital twin”,
the concept is heavily based on the ﬁelds of structural health
monitoring and load estimations (or, more generally, virtual
sensing), which have long been topics of research. For in-
stance, Iliopoulos et al. (2016) used physics-based modal de-
composition to estimate the dynamic response on the sub-
structure of a ﬁxed-bottom wind turbine. Neural networks
have been used to establish transfer functions or surrogate
models based on SCADA data to obtain wind turbine loads
with the aim of performing conditional monitoring (see,
e.g., Cosack, 2010; Schröder et al., 2018). Kalman ﬁlters
were introduced in ﬁelds other than wind energy to per-
form load estimation (Auger et al., 2013; Ma and Ho, 2004;
Eftekhar Azam et al., 2015; Lourens et al., 2012). Kalman
ﬁltering has been extensively used in wind energy to esti-
mate rotor loads and improve wind turbine control (Boukhez-
zar and Siguerdidjane, 2011; Selvam et al., 2009; Bottasso
and Croce, 2009; Bossanyi, 2003). Load estimations were
also achieved using hybrid techniques combining physics
based on SCADA data by Noppe et al. (2016). Other load
estimation techniques may be used, such as lookup tables
(Mendez Reyes et al., 2019), modal expansion (Iliopoulos
et al., 2016), machine learning (Evans et al., 2018), neural
networks (Schröder et al., 2018), polynomial chaos expan-
sion (Dimitrov et al., 2018), deconvolution (Jacquelin et al.,
2003), or load extrapolation (Ziegler et al., 2017).
In this work, we build on our previous work related to
ﬁxed-bottom turbines and present a digital twin solution
for ﬂoating wind turbines that relies on physics-based mod-
els and a Kalman ﬁlter. We apply the digital twin to the
TetraSpar structure and use measurements from the full-scale
prototype. Achieving computational efﬁciency is crucial to
be able to run the digital twin online; therefore, a reduced-
order model with few selected degrees of freedom is used.
Developing digital twins for ﬂoating wind turbines presents
a set of challenges compared to our previous work on ﬁxed-
bottom foundations. The potentially large motions under-
gone by the platform may affect the aerodynamics and ac-
celerometer signals. The models developed for ﬁxed-bottom
foundations need to be augmented to be able to predict the
aerodynamics when the platform experiences large pitching
motions. The dynamics of the platform motion needs to be
well captured for the tower-top accelerometer to be used and
for estimating the loading in the station-keeping system. In
both ﬂoating and ﬁxed-bottom wind turbines, hydrodynamic
loads need to be estimated to capture member-level loads in
the substructure, but they can be omitted as a ﬁrst approxi-
mation if only the tower loads are estimated, as in this study.
In Sect. 2, we provide an overview of our digital con-
cept, the vision for future application, and the TetraSpar pro-
totype on which the digital twin is applied. In Sect. 3, we
present the individual components of the digital twin and run
some isolated veriﬁcation studies on them. In Sect. 4, we
Wind Energ. Sci., 9, 1–24, 2024 https://doi.org/10.5194/wes-9-1-2024
------------------------------End of the page -----------------------------------
E. Branlard et al.: Digital twin ﬂoating 3
present results from the digital twin application ﬁrst using
numerical experiments and then using measurements from
the TetraSpar prototype before concluding. To avoid length-
ening the main text, we provide derivations (some of which
are important contributions of this work) and additional re-
sults in appendices.
2 Overview of the digital twin concept
In this section, we provide an overview of our digital twin
concept and how it is applied in this study.
2.1 Long-term vision of the digital twin concept
Many deﬁnitions and applications of digital twins are pos-
sible. The vision for the concept discussed in this work is
to follow the life cycle of a wind turbine in real time and
ultimately provide tangible signals to inform O&M deci-
sions. Our goal is to achieve this by relying only on mea-
surements expected to be available on most wind turbines,
thereby avoiding the extra cost of adding sensors. In this
work, we leave open the question as to whether the installa-
tion of an additional set of optimally placed and selected sen-
sors can further improve the predictions of the digital twin,
further reducing the long-term O&M costs, and thereby war-
ranting the additional costs of adding the sensors.
We illustrate our approach and vision in Fig. 1.
The digital twin is intended to run in real time on a cloud
platform. It combines a set of models (on the left of the ﬁg-
ure) with data from the real system (on the right) to perform
the estimation of various states and eventually produce diag-
nostics that can be used to inform the O&M. The data from
the real system are taken from high-frequency measurements
from the SCADA system (e.g., power, pitch, rotor speed).
The states estimated by the digital twin include aerodynamic
states (wind speed, thrust) and motions of the structure (e.g.,
surge, pitch, tower deﬂection). The core algorithm in the es-
timation is a Kalman ﬁlter that uses a linear wind turbine
model. The estimated states are used in a virtual sensing step
to produce quantities of interests (QoIs), such as the loads
at key locations of the structure. The QoIs are then intended
to be postprocessed by a monitoring and diagnostic tool to
generate the data needed to perform condition-based O&M.
2.2 Narrowed scope
The boxes in Fig. 1 with dashed-line borders – structural
health modeling, monitoring and diagnostics, and O&M de-
cisions – are postponed to future work, even though they are
essential steps to achieve our ﬁnal vision. Dashed lines and
arrows indicate options that may be exploited in the future
but are also outside of our scope: the use of historical data
to assist in the diagnostics, the use of estimates to perform
model updating, and real-time implementation.This work therefore focuses on the estimation of states and
environmental conditions under the assumption that the esti-
mated quantities can replace costly measurements and even-
tually be used for O&M decisions. We intend to provide a
proof of concept that paves the way for future commercial
applications. A detailed description of each of the boxes sur-
rounded with solid lines is given in Sect. 3.
2.3 System studied
2.3.1 The TetraSpar prototype
The system studied for this article is the TetraSpar ﬂoating
offshore prototype. The system consists of a ﬂoating plat-
form and station-keeping system developed by Stiesdal Off-
shore in collaboration with partners Shell, RWE, and TEPCO
Renewable Power, as well as a 3.6 MW wind turbine with a
rotor diameter of 130 m developed by Siemens Gamesa Re-
newable Energy. A sketch of the system is provided in Fig. 2.
The prototype was installed off the coast of Norway and
commissioned in November 2021. The prototype turbine is
equipped with additional sensors (labeled “Optional mea-
surements” in Fig. 1), which we use to validate the esti-
mated QoIs.
2.3.2 Numerical experiments
Prior to using measurement data, we use simulations (re-
ferred to as “numerical experiments”) in place of the real
system to feed data to the digital twin. The advantage of this
approach is that the QoIs are directly accessible and can be
compared to the estimates for veriﬁcation purposes.
Data for the numerical experiments are obtained using
OpenFAST simulations (Jonkman et al., 2023a, b). A model
of the TetraSpar ﬂoating platform and the wind turbine was
implemented in OpenFAST based on data provided by the
manufacturers. All the members of the substructure are mod-
eled using the strip-theory approach (Morison equation) be-
cause the inherent long-wavelength assumption of the strip
theory has been shown to be sufﬁciently accurate for this
structure with relatively slender members. The OpenFAST
model is complemented with NREL’s Reference OpenSource
Controller (ROSCO, Abbas et al., 2022). The controller pa-
rameters are tuned so that OpenFAST simulations match the
operating conditions of the turbine extracted from SCADA
data (pitch, rotor speed, and power). The nacelle velocity
feedback option of ROSCO is used to reduce the platform
pitching motion. Using trial and error, the frequency and
damping ratio of the pitch PI controller are set to !pD
0:05 rad s 1andpD7 %, and the values for the torque con-
troller are set !QD0:15 rad s 1andQD7 %. The gain
scheduling of the pitch controller is obtained using the tun-
ing feature of ROSCO. We note that the controller is only
needed to perform veriﬁcations of the digital twin with real-
istic time series of the turbine responses, but the controller
itself is not used for the design of the digital twin. We use the
https://doi.org/10.5194/wes-9-1-2024 Wind Energ. Sci., 9, 1–24, 2024
------------------------------End of the page -----------------------------------
4 E. Branlard et al.: Digital twin ﬂoating
Figure 1. Overview of the digital twin concept. Dashed lines indicate features that are outside the current scope.
Figure 2. Sketch of the TetraSpar prototype.
following modules of OpenFAST (Jonkman et al., 2023a, b):
MAP (mooring lines), HydroDyn (hydrodynamics), Elas-
toDyn (tower and blade elasticity; rigid ﬂoater), AeroDyn
(aerodynamics), InﬂowWind (wind inﬂow), and ServoDyn
(controller interface).For the numerical experiments, we use synthetic turbulent
wind ﬁelds generated using TurbSim (Jonkman and Buhl,
2006). In particular, we often use the same wind ﬁeld, which
we refer to as the “turbulent step”, where a deterministic
ramp and drop are added to a turbulent ﬁeld. The advantage
of this 10 min wind ﬁeld is that it covers all the operating
regions of the turbine in a challenging way because the vari-
ations of the wind speed are sudden. The wind speed at hub
height for the turbulent step can be seen in Fig. 6.
2.3.3 Main aspects of the structural model
We model the structure using a set of 8 degrees of free-
dom (DOFs), as illustrated in Fig. 3.
The platform is represented as a rigid body, and its mo-
tion is described using 6 DOFs: surge, sway, heave, roll,
pitch, and yaw, respectively noted x;y;z;x;y, andz. The
tower bending in the fore–aft direction is represented us-
ing 1 generalized DOF, qt, associated with a Rayleigh–Ritz
shape function, taken as the ﬁrst fore–aft mode shape of the
tower (Branlard, 2019). The side–side tower bending can be
added in a similar way, but for simplicity, it was not consid-
ered in this study. The shape function along the tower height,
zt, is written as 8(zt), with8(0)D0 at the tower bottom and
8(LT)D1 at the tower top, where LTis the tower length.
The shaft rotation is noted  , so that the rotation speed of
the rotor isP , where the dot notation indicates differenti-
ation with respect to time. The rotor–nacelle assembly is
modeled as a rigid body. The full vector of DOFs is there-
foreqDTx;y;z;x;y;z;qt; U. The equations of motion
will be recast into a ﬁrst-order form by concatenating the
vector of DOFs and its time derivative, xDTq;PqU. The se-
lected set of DOFs captures the ﬁrst-order effects as it is the
Wind Energ. Sci., 9, 1–24, 2024 https://doi.org/10.5194/wes-9-1-2024
------------------------------End of the page -----------------------------------
E. Branlard et al.: Digital twin ﬂoating 5
Figure 3. Notations for the structural modeling of the ﬂoating wind turbine, assuming no yawing of the nacelle. (a)Main
points (F;T;N;O;G ) and inertial coordinate system ( i).(b)Degrees of freedom ( x;y;z;x;y;z;qt; ) and main loads: aerodynam-
ics (T;Q ), hydrodynamics (66 mass and damping and stiffness matrices, Mh,Ch,Kh; wave-excitation force neglected), mooring (6 6 stiff-
ness matrix, Km), and gravity ( g).
minimal set required to capture the full motion of the ﬂoater
(necessary to compute restoring loads and tower loads), the
tower ﬂexibility (necessary to capture tower loads), and the
rotor motion (necessary to capture the aerodynamics). Addi-
tional degrees of freedom could be considered to increase the
modeling accuracy, in particular to include ﬂoater ﬂexibility
for internal calculation of substructure member loads. This
would increase the computational requirement and only con-
tribute to second-order effects, and it is therefore postponed
to future work.
In this work, we perform simplifying assumptions, e.g.,
neglecting the inﬂuence of nacelle yaw on the system. The
measurement data are conveniently provided in the fore–aft
and side–side system of the nacelle. The main assumption is
therefore that we assume a rotational symmetry of the plat-
form and mooring system about the yaw axis. We intend to
lift this assumption in future work. Some of the consequences
of this assumption is that we do no capture changes of iner-
tial properties due to asymmetry of the support structure and
changes of stiffness of the mooring system. In the case of the
TetraSpar, the mass matrix of the ﬂoater does not vary sig-
niﬁcantly with the yawing of the coordinate system, and the
assumption is fair. We note that if the structure had perfect
120symmetry about the yaw axis, then its inertia would
be invariant by yaw rotation. For the restoring stiffness ofthe mooring system, the diagonal terms do not vary signiﬁ-
cantly as the coordinate system yaws, but some of the cou-
pling terms vary by 50 % to 200 %. The couplings between
the platform DOFs are likely wrongly estimated under the
rotational symmetry assumption. The impact is nevertheless
limited because most of the platform DOFs ( x;y;x, andy)
are measured and therefore observable by the Kalman ﬁlter.
3 Individual components of the digital twin
In this section, we describe and verify the individual compo-
nents of the digital twin presented in Fig. 1. In Sect. 4, we
present applications of the digital twin where all the individ-
ual components are combined together.
3.1 Wind turbine measurements
The measurements used as inputs to the digital twin are listed
in Table 1.
These outputs are stored in a database at a sampling rate
of 25 Hz. We expect these measurements to be standard sen-
sors for any ﬂoating wind turbine. The TetraSpar prototype
is equipped with additional measurements that are used to
validate the implementation of the digital twin (see Sect. 4).
https://doi.org/10.5194/wes-9-1-2024 Wind Energ. Sci., 9, 1–24, 2024
------------------------------End of the page -----------------------------------
6 E. Branlard et al.: Digital twin ﬂoating
Table 1. Measurements used as inputs to the digital twin.
Signal Symbol
Collective blade pitch angle p
Rotor speed P 
Generator torqueQg
Platform surge and sway x;y
Platform roll and pitch x;y
Nacelle accelerations RrN
Obtained from the power measurement using
Eq. (2).
Table 2. Approaches and tools used to obtain nonlinear and linear
models.
3.2 Nonlinear wind turbine models
3.2.1 Overview
Similar to our previous work (Branlard et al., 2020b), we use
two different pathways to obtain nonlinear and linear models
of ﬂoating wind turbines: OpenFAST and WELIB (Wind En-
ergy LIBrary, Branlard, 2023c, d). The OpenFAST approach
was described in Sect. 2.3.2, it is compared to the WELIB
approach in Table 2, and the WELIB toolset is further dis-
cussed below. In the next sections, we will show that the re-
sults from both approaches are consistent with each other so
that either of the two can be used to obtain nonlinear and lin-
ear reduced-order models. Ultimately, in Sect. 4, a mix of the
two approaches is used for the digital twin: linear OpenFAST
models for the state-space equations (Sect. 3.5) and WELIB
for the virtual sensing step (Sect. 3.6).
3.2.2 WELIB tools
The WELIB approach consists of a set of dedicated open-
source Python tools that are similar to the ElastoDyn, Hydro-
Dyn, and MAP modules of OpenFAST. We developed these
tools to offer additional modularity and granularity: the tools
can be called individually or together; their states, inputs, and
outputs can be accessed and manipulated at each time step;
and the Python scripting eases the manipulation of the mod-
els. For instance, this allows for
1. analytical linearization of the structural dynamics,2. simple linearization of the hydrodynamics (obtention of
66 matrices),
3. linearization of hydrodynamics with respect to wave el-
evation,
4. linearization with respect to parameters (Jonkman et al.,
2022), and
5. interactive time stepping of the linear and nonlinear
model.
In this work, we mostly use the ﬁrst two features listed above,
and their usage will be described in Sect. 3.3.2. Results from
time-stepping simulations will be presented in Sect. 3.3.3.
We expect to exploit the additional features of WELIB in
future digital twin implementations. For this work, we im-
plemented the following tools in WELIB: (1) YAMS, a sym-
bolic structural dynamics package to obtain the equations of
motion of an assembly of rigid and ﬂexible bodies analyt-
ically and allow for their analytical linearization (Branlard
and Geisler, 2022); (2) pHydroDyn, a Python version of the
module HydroDyn (with a subset of HydroDyn’s functional-
ity) to determine the hydrodynamic loads; and (3) pyMAP, a
wrapper around the MAP module of OpenFAST to obtain
the mooring quasi-statics. With these three additions, it is
possible to perform nonlinear simulations of ﬂoating wind
turbines using WELIB and perform comparisons with Open-
FAST.
3.2.3 Differences between the two nonlinear
approaches
Currently, no controller or aerodynamic module is present
in WELIB. Therefore, nonlinear time-stepping simulations
with WELIB are limited to free-decay simulations or pre-
scribed loads. Another shortcoming is that WELIB does not
cover the full range of options available with OpenFAST,
which is a continuously evolving, extensively veriﬁed and
validated tool. Such options include the potential ﬂow rep-
resentation of hydrodynamic bodies, the ﬂexibility of the
ﬂoating structure, and aerodynamic and control features. One
beneﬁt of WELIB over OpenFAST is the possibility to per-
form interactive time stepping, that is, to change the states
and inputs dynamically during the simulation. We do not
use this approach in this work, but it can be considered for
nonlinear digital twin applications, for instance, using an ex-
tended Kalman ﬁlter algorithm. Another beneﬁt is the pos-
sibility to obtain analytical linear models of the structure,
which avoids using ﬁnite differences and therefore reduces
the associated numerical errors. In the WELIB approach,
the individual modules are linearized separately before being
combined into the ﬁnal linear model, and it is therefore eas-
ier to understand where each term in the Jacobians of the lin-
ear models comes from and thereby gain physical intuitive-
ness on the model. Ultimately, the linear models obtained
Wind Energ. Sci., 9, 1–24, 2024 https://doi.org/10.5194/wes-9-1-2024
------------------------------End of the page -----------------------------------
E. Branlard et al.: Digital twin ﬂoating 7
by both approaches are similar and differ mostly based on
differences in the structural dynamics equations and the im-
plementation of rotational transformation matrices. Results
comparing time simulations using both approaches will be
presented in Sect. 3.3.
3.3 Linear wind turbine models
As part of our digital twin concept, we have chosen to use
linear wind turbine models and a Kalman ﬁlter for the core
of the state estimation (see Sect. 3.5). Nonlinear models and
an extended Kalman ﬁlter could be considered in future it-
erations. In this section, we describe how the linear models
from OpenFAST and WELIB are obtained.
3.3.1 OpenFAST linearization
OpenFAST can provide full-system linearization of its un-
derlying nonlinear models by using a mix of analytically and
ﬁnite-difference-derived Jacobians (Jonkman and Jonkman,
2016; Jonkman et al., 2018). The linearization process pro-
vides the state-space model ( PxDAxCBu) and output
equation (yDCxCDu) for small perturbations (indi-
cated with) of the internal states ( x), inputs (u), and outputs
(y) of OpenFAST, around a selected operating point. Open-
FAST provides the linear model for the entire set of states,
inputs, and outputs present in the model (including virtual
sensor-type outputs typically written to an output ﬁle and not
used internally). In this work, we extract subsets of the A,
B,C, and Dmatrices and combine them to form the linear
model of the state estimator (see Sect. 3.5).
3.3.2 WELIB linearization
WELIB performs the linearization of the structure, hydrody-
namics, and moorings independently before combining them
into one model. The aerodynamic loads are not linearized be-
cause a dedicated aerodynamic estimator is used in this work
(see Sect. 3.4). The steps are as follows.
–The structural equations are linearized analytically us-
ing our symbolic framework (Branlard and Geisler,
2022). We introduced a notion of “augmented inputs”
to linearize the equations of motion without explicit
knowledge of the external forces. The process is de-
scribed in Sect. A.
–We compute the 66 linearized rigid-body hydrody-
namics matrices (mass matrix Mh, damping matrix Ch,
and stiffness matrix Kh) corresponding to the six rigid-
body motions of the platform. At the time of this study,
these matrices could not be obtained directly from
OpenFAST. While working on this issue, we ended up
devising multiple ways to obtain them. They can now
be obtained using (1) full-system linearization of the
HydroDyn module, (2) the Python implementation ofthe HydroDyn module by performing rigid-body per-
turbations of the full platform, or (3) an upgraded ver-
sion of the OpenFAST HydroDyn driver that also uses
rigid-body perturbations. The ﬁrst approach uses base-
line OpenFAST functionalities but requires additional
postprocessing scripts and derivations. The full-system
linearization of OpenFAST provides Jacobians of the
hydrodynamic loads as a function of motions of the in-
dividual hydrodynamic analysis nodes (of which mod-
els often have hundreds to thousands of). To transfer
these individual Jacobians to the reference point and
obtain the 66 matrices, we developed and used the
method presented in Sect. B. The process is involved
and prone to errors. In comparison, the second and third
approaches are straightforward to implement and are